=========
Changelog
=========

This file keeps track of all notable changes to the License Manager Agent Charm.

Unreleased
----------

- fix command to reload systemd settings when installing
- add config options to set the path to rlmutil and lmutil
- add config options to set the path for ls-dyna
- add config options to set the path for lm-x
- add config option to define if reconciliation should run during Prolog/Epilog execution
- add config option to set a timeout to stop systemd service in case it hangs

0.0.1 - 2021-11-10
------------------

- initital release
